@<TRIPOS>MOLECULE
    BEN
   18    18     0     0     0
SMALL
USER_CHARGES

@<TRIPOS>ATOM
      1 C1         -1.8211   14.3150   16.6549 ca       1 BEN1      -0.2619
      2 C2         -1.7156   15.7231   16.6641 ca       1 BEN1      -0.0820
      3 C3         -1.3933   16.4057   17.8481 ca       1 BEN1      -0.1160
      4 C4         -1.1760   15.6921   19.0355 ca       1 BEN1      -0.0580
      5 C5         -1.2795   14.2937   19.0391 ca       1 BEN1      -0.1160
      6 C6         -1.5984   13.6072   17.8564 ca       1 BEN1      -0.0820
      7 C7         -2.1624   13.5868   15.3961 ce       1 BEN1       0.5224
      8 N1         -3.0306   14.1816   14.4826 nv       1 BEN1      -0.4611
      9 N2         -1.6046   12.3305   15.1667 nv       1 BEN1      -0.4611
     10 H1         -1.8666   16.2976   15.7544 ha       1 BEN1       0.1490
     11 H2         -1.3086   17.4893   17.8461 ha       1 BEN1       0.1700
     12 H3         -0.9278   16.2221   19.9516 ha       1 BEN1       0.1700
     13 H4         -1.1148   13.7423   19.9612 ha       1 BEN1       0.1700
     14 H5         -1.6854   12.5246   17.8879 ha       1 BEN1       0.1490
     15 H6         -3.4742   13.6039   13.7795 hn       1 BEN1       0.3267
     16 H7         -3.5369   15.0059   14.7855 hn       1 BEN1       0.3267
     17 H8         -1.6074   11.9567   14.2258 hn       1 BEN1       0.3267
     18 H9         -0.8506   12.0340   15.7760 hn       1 BEN1       0.3267
@<TRIPOS>BOND
     1     1     2   ar
     2     1     6   ar
     3     1     7    1
     4     2     3   ar
     5     2    10    1
     6     3     4   ar
     7     3    11    1
     8     4     5   ar
     9     4    12    1
    10     5     6   ar
    11     5    13    1
    12     6    14    1
    13     7     8    1
    14     7     9    2
    15     8    15    1
    16     8    16    1
    17     9    17    1
    18     9    18    1